data_cif

_audit_creation_method             'generated by GULP'

_symmetry_space_group_name_H-M     'P 1'
_symmetry_Int_Tables_number        1
_symmetry_cell_setting             triclinic

_cell_length_a                        2.2115
_cell_length_b                        2.2115
_cell_length_c                       11.2577
_cell_angle_alpha                   90.0000
_cell_angle_beta                    90.0000
_cell_angle_gamma                  120.0000

loop_
_atom_site_label
_atom_site_fract_x
_atom_site_fract_y
_atom_site_fract_z
_atom_site_occupancy
  C           0.00200      0.27511      0.11736  1.0000
  C           0.72489      0.72689      0.11736  1.0000
  C           0.27311      0.99800      0.11736  1.0000
  C           0.00200      0.27511      0.38264  1.0000
  C           0.72489      0.72689      0.38264  1.0000
  C           0.27311      0.99800      0.38264  1.0000
  C           0.72489      0.99800      0.61736  1.0000
  C           0.27311      0.27511      0.61736  1.0000
  C           0.00200      0.72689      0.61736  1.0000
  C           0.72489      0.99800      0.88264  1.0000
  C           0.27311      0.27511      0.88264  1.0000
  C           0.00200      0.72689      0.88264  1.0000
  C           0.33333      0.66667      0.44088  1.0000
  C           0.33333      0.66667      0.05912  1.0000
  C           0.33333      0.66667      0.94088  1.0000
  C           0.33333      0.66667      0.55912  1.0000
